Version 4
SHEET 1 1084 844
WIRE -432 -240 -1024 -240
WIRE -48 -240 -432 -240
WIRE 64 -240 16 -240
WIRE 224 -240 144 -240
WIRE 288 -240 224 -240
WIRE 288 -224 288 -240
WIRE 880 -160 352 -160
WIRE 976 -160 880 -160
WIRE -432 -144 -432 -240
WIRE -432 -144 -480 -144
WIRE -384 -144 -432 -144
WIRE -480 -128 -480 -144
WIRE 560 -80 400 -80
WIRE 704 -80 560 -80
WIRE 560 -64 560 -80
WIRE 224 -16 224 -240
WIRE -848 0 -912 0
WIRE -704 0 -768 0
WIRE -480 0 -480 -48
WIRE -480 0 -512 0
WIRE 192 0 -480 0
WIRE 352 0 352 -160
WIRE 400 0 400 -16
WIRE 400 0 352 0
WIRE 704 0 704 -16
WIRE 784 0 704 0
WIRE -912 16 -912 0
WIRE 336 16 256 16
WIRE 512 16 336 16
WIRE -384 32 -384 -64
WIRE 192 32 -384 32
WIRE -384 48 -384 32
WIRE 224 80 224 48
WIRE 288 80 288 -160
WIRE 288 80 224 80
WIRE 336 80 288 80
WIRE 400 80 400 64
WIRE 400 80 336 80
WIRE 560 80 560 32
WIRE 560 80 400 80
WIRE 704 80 704 64
WIRE 704 80 560 80
WIRE -784 96 -912 96
WIRE -704 96 -784 96
WIRE -480 96 -512 96
WIRE -480 128 -480 96
WIRE -384 128 -480 128
WIRE -480 176 -480 128
WIRE 880 192 880 -160
WIRE 976 192 976 -160
WIRE -1024 256 -1024 -240
WIRE -432 256 -1024 256
WIRE 224 256 -432 256
WIRE 784 256 784 0
WIRE 784 256 352 256
WIRE -1024 288 -1024 256
WIRE -432 304 -432 256
WIRE -432 304 -512 304
WIRE -384 304 -432 304
WIRE -512 320 -512 304
WIRE 560 352 416 352
WIRE 704 352 560 352
WIRE 560 368 560 352
WIRE 224 416 224 256
WIRE -512 432 -512 400
WIRE 192 432 -512 432
WIRE 352 432 352 256
WIRE 416 432 416 416
WIRE 416 432 352 432
WIRE 704 432 704 416
WIRE 784 432 704 432
WIRE -848 448 -896 448
WIRE -736 448 -768 448
WIRE -512 448 -512 432
WIRE -512 448 -544 448
WIRE 320 448 256 448
WIRE 512 448 320 448
WIRE -896 464 -896 448
WIRE -384 464 -384 384
WIRE 192 464 -384 464
WIRE -384 480 -384 464
WIRE 416 512 416 496
WIRE 416 512 320 512
WIRE 560 512 560 464
WIRE 560 512 416 512
WIRE 704 512 704 496
WIRE 704 512 560 512
WIRE -800 544 -896 544
WIRE -736 544 -800 544
WIRE -512 544 -544 544
WIRE -512 576 -512 544
WIRE -384 576 -384 560
WIRE -384 576 -512 576
WIRE -512 608 -512 576
WIRE -1024 624 -1024 368
WIRE -1024 624 -1104 624
WIRE -1104 656 -1104 624
WIRE -1024 656 -1024 624
WIRE 784 704 784 432
WIRE 880 704 880 256
WIRE 880 704 784 704
WIRE 976 704 976 272
WIRE 976 704 880 704
WIRE 224 736 224 480
WIRE 224 736 -1024 736
WIRE 784 736 784 704
FLAG -1104 656 0
FLAG 784 736 0
FLAG -480 176 0
FLAG -512 608 0
FLAG -784 96 0
FLAG -800 544 0
SYMBOL voltage -912 0 R0
WINDOW 3 -94 145 Left 2
WINDOW 123 0 0 Left 2
WINDOW 39 0 0 Left 2
SYMATTR Value PULSE(0 5 .5m 1u 1u 4m 10m)
SYMATTR InstName V1
SYMBOL voltage -896 448 R0
WINDOW 3 -121 147 Left 2
WINDOW 123 0 0 Left 2
WINDOW 39 0 0 Left 2
SYMATTR Value PULSE(0 5 5.5m 1u 1u 4m 10m)
SYMATTR InstName V2
SYMBOL voltage -1024 272 R0
WINDOW 123 0 0 Left 2
WINDOW 39 24 124 Left 2
SYMATTR SpiceLine Rser=1
SYMATTR InstName V3
SYMATTR Value 15
SYMBOL diode -48 -224 R270
WINDOW 0 32 32 VTop 2
WINDOW 3 0 32 VBottom 2
SYMATTR InstName D1
SYMBOL cap 272 -224 R0
SYMATTR InstName C1
SYMATTR Value 1µ
SYMATTR SpiceLine V=200 Irms=10 Rser=1
SYMBOL voltage 976 176 R0
WINDOW 123 0 0 Left 2
WINDOW 39 24 124 Left 2
SYMATTR SpiceLine Rser=1
SYMATTR InstName V4
SYMATTR Value 48
SYMBOL voltage -1024 640 R0
WINDOW 123 0 0 Left 2
WINDOW 39 24 124 Left 2
SYMATTR SpiceLine Rser=1
SYMATTR InstName V5
SYMATTR Value 15
SYMBOL res 160 -256 R90
WINDOW 0 0 56 VBottom 2
WINDOW 3 32 56 VTop 2
SYMATTR InstName R1
SYMATTR Value 1e3
SYMBOL Optos\\PC817A -608 48 R0
SYMATTR InstName U3
SYMBOL Opamps\\UniversalOpamp2 224 16 R0
SYMATTR InstName U4
SYMBOL res -496 -144 R0
SYMATTR InstName R2
SYMATTR Value 1e4
SYMBOL res -400 -160 R0
SYMATTR InstName R3
SYMATTR Value 1e4
SYMBOL res -400 32 R0
SYMATTR InstName R4
SYMATTR Value 1e4
SYMBOL res -752 -16 R90
WINDOW 0 0 56 VBottom 2
WINDOW 3 32 56 VTop 2
SYMATTR InstName R5
SYMATTR Value 2e3
SYMBOL res -752 432 R90
WINDOW 0 0 56 VBottom 2
WINDOW 3 32 56 VTop 2
SYMATTR InstName R6
SYMATTR Value 2e3
SYMBOL res -528 304 R0
SYMATTR InstName R7
SYMATTR Value 1e4
SYMBOL res -400 288 R0
SYMATTR InstName R8
SYMATTR Value 1e4
SYMBOL res -400 464 R0
SYMATTR InstName R9
SYMATTR Value 1e4
SYMBOL Optos\\PC817A -640 496 R0
SYMATTR InstName U5
SYMBOL Opamps\\UniversalOpamp2 224 448 R0
SYMATTR InstName U6
SYMBOL nmos 512 -64 R0
SYMATTR InstName M1
SYMATTR Value IRF1405
SYMBOL nmos 512 368 R0
SYMATTR InstName M2
SYMATTR Value IRF1405
SYMBOL cap 864 192 R0
SYMATTR InstName C2
SYMATTR Value 1µ
SYMBOL diode 416 -16 R180
WINDOW 0 24 64 Left 2
WINDOW 3 40 92 Left 2
SYMATTR InstName D2
SYMBOL diode 416 64 R180
WINDOW 0 12 -37 Left 2
WINDOW 3 24 0 Left 2
SYMATTR InstName D3
SYMBOL diode 720 -16 R180
WINDOW 0 24 64 Left 2
WINDOW 3 34 94 Left 2
SYMATTR InstName D4
SYMBOL diode 720 64 R180
WINDOW 0 21 -34 Left 2
WINDOW 3 24 0 Left 2
SYMATTR InstName D5
SYMBOL diode 720 416 R180
WINDOW 0 24 64 Left 2
WINDOW 3 36 88 Left 2
SYMATTR InstName D6
SYMBOL diode 720 496 R180
WINDOW 0 12 -33 Left 2
WINDOW 3 24 0 Left 2
SYMATTR InstName D7
SYMBOL diode 432 496 R180
WINDOW 0 13 -34 Left 2
WINDOW 3 24 0 Left 2
SYMATTR InstName D8
SYMBOL diode 432 416 R180
WINDOW 0 24 64 Left 2
WINDOW 3 39 87 Left 2
SYMATTR InstName D9
SYMBOL zener 352 80 R180
WINDOW 0 27 -24 Left 2
WINDOW 3 24 0 Left 2
SYMATTR InstName D10
SYMBOL zener 336 512 R180
WINDOW 0 2 -27 Left 2
WINDOW 3 24 0 Left 2
SYMATTR InstName D11
TEXT 352 728 Left 2 !.tran 0 100m 0 1u
