Version 4
SHEET 1 880 844
WIRE -432 -240 -1024 -240
WIRE -176 -240 -432 -240
WIRE -48 -240 -176 -240
WIRE 64 -240 16 -240
WIRE 224 -240 144 -240
WIRE 384 -240 224 -240
WIRE -432 -144 -432 -240
WIRE -432 -144 -480 -144
WIRE -384 -144 -432 -144
WIRE -480 -80 -480 -144
WIRE -384 -48 -384 -64
WIRE -256 -48 -384 -48
WIRE 752 -32 560 -32
WIRE -848 0 -912 0
WIRE -704 0 -768 0
WIRE -480 0 -512 0
WIRE -304 0 -480 0
WIRE -912 16 -912 0
WIRE -384 32 -384 -48
WIRE 384 48 384 -240
WIRE 560 64 560 -32
WIRE -784 96 -912 96
WIRE -704 96 -784 96
WIRE -480 96 -512 96
WIRE -480 112 -480 96
WIRE -384 112 -480 112
WIRE 224 112 224 -240
WIRE -176 128 -176 -240
WIRE 192 128 112 128
WIRE -480 144 -480 112
WIRE -256 144 -256 -48
WIRE -208 144 -256 144
WIRE 512 144 256 144
WIRE 192 160 -144 160
WIRE 752 160 752 -32
WIRE -304 176 -304 0
WIRE -208 176 -304 176
WIRE 224 192 224 176
WIRE 384 192 384 112
WIRE 384 192 224 192
WIRE 560 192 560 160
WIRE 560 192 384 192
WIRE -1024 256 -1024 -240
WIRE -432 256 -1024 256
WIRE -256 256 -432 256
WIRE 224 256 -256 256
WIRE 560 256 560 192
WIRE -1024 288 -1024 256
WIRE -432 304 -432 256
WIRE -432 304 -512 304
WIRE -384 304 -432 304
WIRE 224 304 224 256
WIRE -256 320 -256 256
WIRE 192 320 112 320
WIRE -288 336 -320 336
WIRE 512 336 256 336
WIRE 192 352 -224 352
WIRE -512 368 -512 304
WIRE -384 416 -384 384
WIRE -320 416 -320 336
WIRE -320 416 -384 416
WIRE -848 448 -896 448
WIRE -736 448 -768 448
WIRE -512 448 -544 448
WIRE -288 448 -288 368
WIRE -288 448 -512 448
WIRE 560 448 560 352
WIRE 640 448 560 448
WIRE 752 448 752 240
WIRE 752 448 640 448
WIRE -896 464 -896 448
WIRE -384 480 -384 416
WIRE 640 496 640 448
WIRE -800 544 -896 544
WIRE -736 544 -800 544
WIRE -512 544 -544 544
WIRE -512 576 -512 544
WIRE -384 576 -384 560
WIRE -384 576 -512 576
WIRE -512 608 -512 576
WIRE -1024 624 -1024 368
WIRE -1024 624 -1104 624
WIRE -1104 656 -1104 624
WIRE -1024 656 -1024 624
WIRE -256 736 -256 384
WIRE -256 736 -1024 736
WIRE -176 736 -176 192
WIRE -176 736 -256 736
WIRE 224 736 224 368
WIRE 224 736 -176 736
FLAG -1104 656 0
FLAG 640 496 0
FLAG -480 144 0
FLAG -512 608 0
FLAG 112 128 0
FLAG 112 320 0
FLAG -784 96 0
FLAG -800 544 0
SYMBOL Opamps\\UniversalOpamp2 224 144 R0
SYMATTR InstName U1
SYMBOL voltage -912 0 R0
WINDOW 3 -94 145 Left 2
WINDOW 123 0 0 Left 2
WINDOW 39 0 0 Left 2
SYMATTR Value PULSE(0 5 5u 1u 1u 40u 100u)
SYMATTR InstName V1
SYMBOL voltage -896 448 R0
WINDOW 3 -121 147 Left 2
WINDOW 123 0 0 Left 2
WINDOW 39 0 0 Left 2
SYMATTR Value PULSE(0 5 55u 1u 1u 40u 100u)
SYMATTR InstName V2
SYMBOL Opamps\\UniversalOpamp2 224 336 R0
SYMATTR InstName U2
SYMBOL voltage -1024 272 R0
WINDOW 123 0 0 Left 2
WINDOW 39 24 124 Left 2
SYMATTR SpiceLine Rser=1
SYMATTR InstName V3
SYMATTR Value 15
SYMBOL diode -48 -224 R270
WINDOW 0 32 32 VTop 2
WINDOW 3 0 32 VBottom 2
SYMATTR InstName D1
SYMBOL cap 368 48 R0
SYMATTR InstName C1
SYMATTR Value 1µ
SYMATTR SpiceLine V=200 Irms=10 Rser=1
SYMBOL voltage 752 144 R0
WINDOW 123 0 0 Left 2
WINDOW 39 24 124 Left 2
SYMATTR SpiceLine Rser=1
SYMATTR InstName V4
SYMATTR Value 48
SYMBOL voltage -1024 640 R0
WINDOW 123 0 0 Left 2
WINDOW 39 24 124 Left 2
SYMATTR SpiceLine Rser=1
SYMATTR InstName V5
SYMATTR Value 15
SYMBOL res 160 -256 R90
WINDOW 0 0 56 VBottom 2
WINDOW 3 32 56 VTop 2
SYMATTR InstName R1
SYMATTR Value 1e5
SYMBOL Optos\\PC817A -608 48 R0
SYMATTR InstName U3
SYMBOL Opamps\\UniversalOpamp2 -176 160 R0
SYMATTR InstName U4
SYMBOL res -496 -96 R0
SYMATTR InstName R2
SYMATTR Value 1e4
SYMBOL res -400 -160 R0
SYMATTR InstName R3
SYMATTR Value 1e4
SYMBOL res -400 16 R0
SYMATTR InstName R4
SYMATTR Value 1e4
SYMBOL res -752 -16 R90
WINDOW 0 0 56 VBottom 2
WINDOW 3 32 56 VTop 2
SYMATTR InstName R5
SYMATTR Value 2e3
SYMBOL res -752 432 R90
WINDOW 0 0 56 VBottom 2
WINDOW 3 32 56 VTop 2
SYMATTR InstName R6
SYMATTR Value 2e3
SYMBOL res -528 352 R0
SYMATTR InstName R7
SYMATTR Value 1e4
SYMBOL res -400 288 R0
SYMATTR InstName R8
SYMATTR Value 1e4
SYMBOL res -400 464 R0
SYMATTR InstName R9
SYMATTR Value 1e4
SYMBOL Optos\\PC817A -640 496 R0
SYMATTR InstName U5
SYMBOL Opamps\\UniversalOpamp2 -256 352 R0
SYMATTR InstName U6
SYMBOL nmos 512 64 R0
SYMATTR InstName M1
SYMBOL nmos 512 256 R0
SYMATTR InstName M2
TEXT 344 544 Left 2 !.tran 0 10m 0 1u
